
These predictions were generated by FAST (v7.02.00d-bjj, 20-Feb-2013) on 02-Mar-2015 at 11:38:00.
The aerodynamic calculations were made by AeroDyn (v13.00.02a-bjj, 20-Feb-2013).

 DTU 10.0 MW Baseline Wind Turbine for Use in Onshore Analysis.

Time	RotPwr	RotTorq	RotCq	RotCt	RotCp	TipDxb1	TipDyb1	TipDzb1	TTDspSS	TTDspAx	BldPitch1	RotSpeed	TTDspFA	TTDspSS	TTDspTwst	RootFxc1	RootFyc1	RootFzc1	RootMxc1	RootMyc1	RootMzc1	YawBrFxp	YawBrFyp	YawBrFzp	YawBrMxp	YawBrMyp	YawBrMzp	TwrBsFxt	TwrBsFyt	TwrBsFzt	TwrBsMxt	TwrBsMyt	TwrBsMzt
(s)	(kW)	(kNm)	(-)	(-)	(-)	(m)	(m)	(m)	(m)	(m)	(deg)	(rpm)	(m)	(m)	(deg)	(kN)	(kN)	(kN)	(kNm)	(kNm)	(kNm)	(kN)	(kN)	(kN)	(kN?)	(kN?)	(kN?)	(kN)	(kN)	(kN)	(kN?)	(kN?)	(kN?)
   0.013	 1.975E+00	 2.936E+00	 3.365E-05	 2.217E-01	 2.525E-04	 7.179E-03	-7.895E-04	-6.676E-07	-2.904E-06	 0.000E+00	 0.000E+00	 6.425E+00	-7.504E-06	-2.904E-06	 0.000E+00	 5.690E+01	-1.951E+01	 1.455E+02	 3.834E+02	 7.714E+02	-1.468E+02	 1.026E+02	-1.653E+00	-6.488E+03	-1.183E+01	-3.190E+03	-7.512E+01	-6.320E+01	-4.084E-01	-1.266E+04	 8.350E+00	-1.460E+03	-7.512E+01
   0.025	 6.008E+00	 8.925E+00	 1.023E-04	 2.284E-01	 7.678E-04	 2.871E-02	-3.181E-03	-6.654E-06	-1.083E-05	 0.000E+00	 0.000E+00	 6.428E+00	-2.932E-05	-1.083E-05	 0.000E+00	 6.112E+01	-1.687E+01	 1.466E+02	 3.212E+02	 9.748E+02	-1.468E+02	 1.025E+02	-1.581E+00	-6.510E+03	-1.562E+01	-3.286E+03	-2.372E+02	-5.777E+01	-2.107E-02	-1.268E+04	-2.425E-01	-1.248E+03	-2.372E+02
   0.038	 1.098E+01	 1.632E+01	 1.870E-04	 2.606E-01	 1.404E-03	 6.345E-02	-6.971E-03	-4.027E-05	-2.248E-05	 0.000E+00	 0.000E+00	 6.429E+00	-6.162E-05	-2.248E-05	 0.000E+00	 7.472E+01	-1.982E+01	 1.470E+02	 2.589E+02	 1.424E+03	-9.386E+01	 1.045E+02	-1.624E+00	-6.539E+03	-2.260E+01	-3.461E+03	-4.536E+02	-4.893E+01	 4.804E-01	-1.271E+04	-1.146E+01	-9.085E+02	-4.536E+02
   0.050	 1.691E+01	 2.511E+01	 2.878E-04	 2.822E-01	 2.161E-03	 1.112E-01	-1.193E-02	-1.157E-04	-3.739E-05	 0.000E+00	 0.000E+00	 6.431E+00	-9.790E-05	-3.739E-05	 0.000E+00	 8.371E+01	-1.841E+01	 1.475E+02	 2.498E+02	 1.850E+03	-9.378E+01	 1.056E+02	-1.776E+00	-6.572E+03	-3.184E+01	-3.695E+03	-7.099E+02	-3.751E+01	 1.023E+00	-1.274E+04	-2.337E+01	-4.545E+02	-7.099E+02
   0.062	 2.524E+01	 3.747E+01	 4.295E-04	 2.449E-01	 3.226E-03	 1.707E-01	-1.822E-02	-2.857E-04	-5.245E-05	 0.000E+00	 0.000E+00	 6.433E+00	-1.345E-04	-5.245E-05	 0.000E+00	 6.969E+01	-1.329E+01	 1.490E+02	 2.572E+02	 1.914E+03	-1.172E+02	 1.004E+02	-1.761E+00	-6.595E+03	-3.682E+01	-3.902E+03	-9.401E+02	-2.508E+01	 1.409E+00	-1.277E+04	-3.086E+01	 6.260E+01	-9.401E+02
   0.075	 3.287E+01	 4.878E+01	 5.592E-04	 2.610E-01	 4.201E-03	 2.394E-01	-2.468E-02	-5.583E-04	-6.747E-05	 0.000E+00	 0.000E+00	 6.433E+00	-1.863E-04	-6.747E-05	 0.000E+00	 7.556E+01	-1.421E+01	 1.490E+02	 3.078E+02	 2.249E+03	-1.172E+02	 1.000E+02	-1.748E+00	-6.628E+03	-4.147E+01	-4.196E+03	-1.148E+03	-9.069E+00	 1.678E+00	-1.280E+04	-3.481E+01	 6.960E+02	-1.148E+03
   0.087	 4.249E+01	 6.306E+01	 7.228E-04	 2.721E-01	 5.430E-03	 3.198E-01	-3.213E-02	-9.941E-04	-8.144E-05	 0.000E+00	 0.000E+00	 6.434E+00	-2.363E-04	-8.144E-05	 0.000E+00	 7.855E+01	-1.784E+01	 1.492E+02	 3.895E+02	 2.569E+03	-1.102E+02	 9.885E+01	-1.553E+00	-6.658E+03	-4.098E+01	-4.515E+03	-1.312E+03	 8.771E+00	 1.704E+00	-1.283E+04	-3.198E+01	 1.405E+03	-1.312E+03
   0.100	 5.134E+01	 7.619E+01	 8.734E-04	 2.921E-01	 6.562E-03	 4.086E-01	-3.944E-02	-1.623E-03	-9.360E-05	 0.000E+00	 0.000E+00	 6.435E+00	-2.994E-04	-9.360E-05	 0.000E+00	 8.474E+01	-2.092E+01	 1.488E+02	 4.933E+02	 2.951E+03	-1.102E+02	 9.758E+01	-1.249E+00	-6.688E+03	-3.840E+01	-4.847E+03	-1.429E+03	 2.901E+01	 1.557E+00	-1.286E+04	-2.408E+01	 2.197E+03	-1.429E+03
   0.113	 6.166E+01	 9.149E+01	 1.049E-03	 3.260E-01	 7.881E-03	 5.073E-01	-4.726E-02	-2.511E-03	-1.033E-04	 0.000E+00	 0.000E+00	 6.436E+00	-3.602E-04	-1.033E-04	 0.000E+00	 9.657E+01	-2.851E+01	 1.481E+02	 6.023E+02	 3.435E+03	-1.194E+02	 9.631E+01	-7.256E-01	-6.716E+03	-3.002E+01	-5.171E+03	-1.490E+03	 5.151E+01	 1.147E+00	-1.289E+04	-9.003E+00	 3.060E+03	-1.490E+03
   0.125	 7.138E+01	 1.059E+02	 1.214E-03	 3.507E-01	 9.123E-03	 6.127E-01	-5.497E-02	-3.662E-03	-1.100E-04	 0.000E+00	 0.000E+00	 6.436E+00	-4.132E-04	-1.100E-04	 0.000E+00	 1.039E+02	-3.316E+01	 1.476E+02	 7.444E+02	 3.889E+03	-1.193E+02	 9.373E+01	-8.130E-02	-6.737E+03	-1.877E+01	-5.483E+03	-1.499E+03	 7.468E+01	 5.556E-01	-1.291E+04	 1.101E+01	 3.951E+03	-1.499E+03
   0.138	 8.246E+01	 1.223E+02	 1.402E-03	 3.736E-01	 1.054E-02	 7.263E-01	-6.300E-02	-5.155E-03	-1.136E-04	 0.000E+00	 0.000E+00	 6.437E+00	-4.526E-04	-1.136E-04	 0.000E+00	 1.097E+02	-3.939E+01	 1.471E+02	 8.829E+02	 4.317E+03	-1.229E+02	 9.077E+01	 7.880E-01	-6.753E+03	-2.063E+00	-5.785E+03	-1.458E+03	 9.804E+01	-2.308E-01	-1.293E+04	 3.603E+01	 4.850E+03	-1.458E+03
   0.150	 9.334E+01	 1.385E+02	 1.587E-03	 4.006E-01	 1.193E-02	 8.451E-01	-7.102E-02	-6.979E-03	-1.136E-04	 0.000E+00	 0.000E+00	 6.437E+00	-4.703E-04	-1.136E-04	 0.000E+00	 1.173E+02	-4.468E+01	 1.463E+02	 1.037E+03	 4.799E+03	-1.227E+02	 8.739E+01	 1.736E+00	-6.763E+03	 1.784E+01	-6.051E+03	-1.373E+03	 1.216E+02	-1.161E+00	-1.294E+04	 6.425E+01	 5.749E+03	-1.373E+03
   0.163	 1.058E+02	 1.569E+02	 1.798E-03	 4.254E-01	 1.352E-02	 9.705E-01	-7.941E-02	-9.233E-03	-1.102E-04	 0.000E+00	 0.000E+00	 6.438E+00	-4.578E-04	-1.102E-04	 0.000E+00	 1.242E+02	-5.100E+01	 1.457E+02	 1.187E+03	 5.262E+03	-1.227E+02	 8.355E+01	 2.825E+00	-6.767E+03	 4.285E+01	-6.277E+03	-1.252E+03	 1.443E+02	-2.212E+00	-1.294E+04	 9.464E+01	 6.614E+03	-1.252E+03
   0.175	 1.186E+02	 1.759E+02	 2.017E-03	 4.525E-01	 1.516E-02	 1.100E+00	-8.800E-02	-1.187E-02	-1.034E-04	 0.000E+00	 0.000E+00	 6.440E+00	-4.099E-04	-1.034E-04	 0.000E+00	 1.315E+02	-5.630E+01	 1.449E+02	 1.338E+03	 5.742E+03	-1.225E+02	 8.010E+01	 3.956E+00	-6.766E+03	 7.102E+01	-6.471E+03	-1.102E+03	 1.655E+02	-3.293E+00	-1.294E+04	 1.244E+02	 7.421E+03	-1.102E+03
   0.188	 1.333E+02	 1.976E+02	 2.265E-03	 4.745E-01	 1.704E-02	 1.234E+00	-9.710E-02	-1.497E-02	-9.375E-05	 0.000E+00	 0.000E+00	 6.441E+00	-3.158E-04	-9.375E-05	 0.000E+00	 1.369E+02	-6.158E+01	 1.444E+02	 1.479E+03	 6.189E+03	-1.218E+02	 7.653E+01	 5.158E+00	-6.759E+03	 1.037E+02	-6.618E+03	-9.315E+02	 1.844E+02	-4.363E+00	-1.293E+04	 1.519E+02	 8.143E+03	-9.315E+02
   0.200	 1.491E+02	 2.209E+02	 2.532E-03	 5.006E-01	 1.905E-02	 1.371E+00	-1.067E-01	-1.850E-02	-8.158E-05	 0.000E+00	 0.000E+00	 6.443E+00	-1.704E-04	-8.158E-05	 0.000E+00	 1.439E+02	-6.649E+01	 1.438E+02	 1.621E+03	 6.657E+03	-1.216E+02	 7.420E+01	 6.318E+00	-6.748E+03	 1.397E+02	-6.732E+03	-7.455E+02	 2.003E+02	-5.349E+00	-1.292E+04	 1.747E+02	 8.760E+03	-7.455E+02
   0.213	 1.668E+02	 2.472E+02	 2.833E-03	 5.217E-01	 2.132E-02	 1.512E+00	-1.169E-01	-2.253E-02	-6.774E-05	 0.000E+00	 0.000E+00	 6.445E+00	 3.683E-05	-6.774E-05	 0.000E+00	 1.485E+02	-7.132E+01	 1.435E+02	 1.761E+03	 7.077E+03	-1.224E+02	 7.291E+01	 7.439E+00	-6.732E+03	 1.795E+02	-6.814E+03	-5.517E+02	 2.123E+02	-6.191E+00	-1.290E+04	 1.906E+02	 9.240E+03	-5.517E+02
   0.225	 1.861E+02	 2.756E+02	 3.159E-03	 5.469E-01	 2.378E-02	 1.655E+00	-1.278E-01	-2.703E-02	-5.307E-05	 0.000E+00	 0.000E+00	 6.448E+00	 3.103E-04	-5.307E-05	 0.000E+00	 1.551E+02	-7.561E+01	 1.432E+02	 1.888E+03	 7.526E+03	-1.224E+02	 7.334E+01	 8.465E+00	-6.715E+03	 2.223E+02	-6.861E+03	-3.541E+02	 2.204E+02	-6.793E+00	-1.289E+04	 1.969E+02	 9.582E+03	-3.541E+02
   0.237	 2.074E+02	 3.070E+02	 3.520E-03	 5.689E-01	 2.651E-02	 1.800E+00	-1.393E-01	-3.200E-02	-3.869E-05	 0.000E+00	 0.000E+00	 6.450E+00	 6.604E-04	-3.869E-05	 0.000E+00	 1.610E+02	-7.985E+01	 1.431E+02	 2.006E+03	 7.960E+03	-1.213E+02	 7.495E+01	 9.381E+00	-6.697E+03	 2.686E+02	-6.865E+03	-1.575E+02	 2.241E+02	-7.108E+00	-1.287E+04	 1.918E+02	 9.769E+03	-1.575E+02
   0.250	 2.303E+02	 3.408E+02	 3.906E-03	 5.933E-01	 2.943E-02	 1.945E+00	-1.516E-01	-3.747E-02	-2.582E-05	 0.000E+00	 0.000E+00	 6.452E+00	 1.092E-03	-2.582E-05	 0.000E+00	 1.678E+02	-8.361E+01	 1.432E+02	 2.120E+03	 8.405E+03	-1.215E+02	 7.901E+01	 1.013E+01	-6.679E+03	 3.174E+02	-6.852E+03	 3.456E+01	 2.229E+02	-7.050E+00	-1.285E+04	 1.728E+02	 9.791E+03	 3.456E+01
   0.263	 2.551E+02	 3.774E+02	 4.326E-03	 6.138E-01	 3.261E-02	 2.092E+00	-1.645E-01	-4.339E-02	-1.572E-05	 0.000E+00	 0.000E+00	 6.455E+00	 1.613E-03	-1.572E-05	 0.000E+00	 1.734E+02	-8.722E+01	 1.437E+02	 2.231E+03	 8.824E+03	-1.234E+02	 8.492E+01	 1.071E+01	-6.662E+03	 3.687E+02	-6.815E+03	 2.185E+02	 2.167E+02	-6.580E+00	-1.283E+04	 1.389E+02	 9.646E+03	 2.185E+02
   0.275	 2.814E+02	 4.162E+02	 4.771E-03	 6.376E-01	 3.597E-02	 2.238E+00	-1.780E-01	-4.977E-02	-9.752E-06	 0.000E+00	 0.000E+00	 6.457E+00	 2.228E-03	-9.752E-06	 0.000E+00	 1.806E+02	-9.048E+01	 1.444E+02	 2.328E+03	 9.266E+03	-1.240E+02	 9.340E+01	 1.109E+01	-6.649E+03	 4.217E+02	-6.765E+03	 3.912E+02	 2.058E+02	-5.629E+00	-1.282E+04	 8.827E+01	 9.343E+03	 3.912E+02
   0.287	 3.094E+02	 4.574E+02	 5.243E-03	 6.600E-01	 3.954E-02	 2.385E+00	-1.918E-01	-5.657E-02	-9.101E-06	 0.000E+00	 0.000E+00	 6.459E+00	 2.946E-03	-9.101E-06	 0.000E+00	 1.877E+02	-9.378E+01	 1.454E+02	 2.423E+03	 9.707E+03	-1.239E+02	 1.039E+02	 1.126E+01	-6.638E+03	 4.763E+02	-6.697E+03	 5.490E+02	 1.904E+02	-4.186E+00	-1.281E+04	 2.075E+01	 8.895E+03	 5.490E+02
   0.300	 3.386E+02	 5.004E+02	 5.737E-03	 6.834E-01	 4.327E-02	 2.530E+00	-2.059E-01	-6.377E-02	-1.501E-05	 0.000E+00	 0.000E+00	 6.461E+00	 3.769E-03	-1.501E-05	 0.000E+00	 1.958E+02	-9.666E+01	 1.467E+02	 2.505E+03	 1.016E+04	-1.247E+02	 1.165E+02	 1.123E+01	-6.632E+03	 5.315E+02	-6.621E+03	 6.873E+02	 1.709E+02	-2.218E+00	-1.280E+04	-6.413E+01	 8.317E+03	 6.873E+02
   0.312	 3.691E+02	 5.455E+02	 6.253E-03	 7.057E-01	 4.718E-02	 2.674E+00	-2.200E-01	-7.135E-02	-2.828E-05	 0.000E+00	 0.000E+00	 6.462E+00	 4.704E-03	-2.828E-05	 0.000E+00	 2.042E+02	-9.972E+01	 1.483E+02	 2.591E+03	 1.062E+04	-1.267E+02	 1.306E+02	 1.099E+01	-6.630E+03	 5.871E+02	-6.531E+03	 8.034E+02	 1.481E+02	 2.347E-01	-1.280E+04	-1.649E+02	 7.637E+03	 8.034E+02
   0.325	 4.007E+02	 5.920E+02	 6.786E-03	 7.286E-01	 5.121E-02	 2.817E+00	-2.340E-01	-7.926E-02	-4.981E-05	 0.000E+00	 0.000E+00	 6.464E+00	 5.754E-03	-4.981E-05	 0.000E+00	 2.132E+02	-1.023E+02	 1.500E+02	 2.657E+03	 1.109E+04	-1.273E+02	 1.466E+02	 1.059E+01	-6.633E+03	 6.421E+02	-6.444E+03	 8.910E+02	 1.225E+02	 3.183E+00	-1.281E+04	-2.809E+02	 6.878E+03	 8.910E+02
   0.338	 4.334E+02	 6.402E+02	 7.338E-03	 7.502E-01	 5.539E-02	 2.958E+00	-2.478E-01	-8.747E-02	-7.971E-05	 0.000E+00	 0.000E+00	 6.465E+00	 6.924E-03	-7.971E-05	 0.000E+00	 2.225E+02	-1.049E+02	 1.519E+02	 2.723E+03	 1.157E+04	-1.279E+02	 1.631E+02	 1.004E+01	-6.640E+03	 6.964E+02	-6.339E+03	 9.487E+02	 9.533E+01	 6.527E+00	-1.281E+04	-4.090E+02	 6.082E+03	 9.487E+02
   0.350	 4.671E+02	 6.898E+02	 7.907E-03	 7.720E-01	 5.970E-02	 3.096E+00	-2.611E-01	-9.595E-02	-1.182E-04	 0.000E+00	 0.000E+00	 6.466E+00	 8.218E-03	-1.182E-04	 0.000E+00	 2.322E+02	-1.072E+02	 1.539E+02	 2.778E+03	 1.206E+04	-1.283E+02	 1.806E+02	 9.390E+00	-6.652E+03	 7.494E+02	-6.239E+03	 9.706E+02	 6.717E+01	 1.021E+01	-1.282E+04	-5.467E+02	 5.273E+03	 9.706E+02
   0.363	 5.019E+02	 7.411E+02	 8.495E-03	 7.923E-01	 6.415E-02	 3.233E+00	-2.738E-01	-1.047E-01	-1.647E-04	 0.000E+00	 0.000E+00	 6.468E+00	 9.638E-03	-1.647E-04	 0.000E+00	 2.428E+02	-1.095E+02	 1.559E+02	 2.838E+03	 1.255E+04	-1.296E+02	 1.976E+02	 8.673E+00	-6.666E+03	 8.012E+02	-6.116E+03	 9.573E+02	 3.960E+01	 1.410E+01	-1.284E+04	-6.892E+02	 4.503E+03	 9.573E+02
   0.375	 5.380E+02	 7.941E+02	 9.103E-03	 8.124E-01	 6.876E-02	 3.366E+00	-2.858E-01	-1.135E-01	-2.187E-04	 0.000E+00	 0.000E+00	 6.469E+00	 1.119E-02	-2.187E-04	 0.000E+00	 2.528E+02	-1.117E+02	 1.578E+02	 2.888E+03	 1.304E+04	-1.295E+02	 2.149E+02	 7.982E+00	-6.683E+03	 8.515E+02	-6.010E+03	 9.061E+02	 1.278E+01	 1.808E+01	-1.286E+04	-8.330E+02	 3.788E+03	 9.061E+02
   0.388	 5.754E+02	 8.492E+02	 9.734E-03	 8.341E-01	 7.355E-02	 3.497E+00	-2.972E-01	-1.226E-01	-2.787E-04	 0.000E+00	 0.000E+00	 6.471E+00	 1.287E-02	-2.787E-04	 0.000E+00	 2.630E+02	-1.139E+02	 1.596E+02	 2.945E+03	 1.353E+04	-1.301E+02	 2.319E+02	 7.352E+00	-6.701E+03	 9.006E+02	-5.912E+03	 8.197E+02	-1.200E+01	 2.200E+01	-1.287E+04	-9.726E+02	 3.171E+03	 8.197E+02
   0.400	 6.146E+02	 9.066E+02	 1.039E-02	 8.521E-01	 7.855E-02	 3.625E+00	-3.079E-01	-1.318E-01	-3.438E-04	 0.000E+00	 0.000E+00	 6.473E+00	 1.468E-02	-3.438E-04	 0.000E+00	 2.726E+02	-1.160E+02	 1.611E+02	 2.998E+03	 1.400E+04	-1.296E+02	 2.473E+02	 6.873E+00	-6.719E+03	 9.490E+02	-5.804E+03	 6.989E+02	-3.367E+01	 2.571E+01	-1.289E+04	-1.103E+03	 2.689E+03	 6.989E+02
   0.412	 6.556E+02	 9.668E+02	 1.108E-02	 8.702E-01	 8.379E-02	 3.750E+00	-3.179E-01	-1.410E-01	-4.120E-04	 0.000E+00	 0.000E+00	 6.476E+00	 1.664E-02	-4.120E-04	 0.000E+00	 2.824E+02	-1.180E+02	 1.624E+02	 3.057E+03	 1.447E+04	-1.305E+02	 2.613E+02	 6.616E+00	-6.736E+03	 9.974E+02	-5.696E+03	 5.498E+02	-5.148E+01	 2.904E+01	-1.291E+04	-1.219E+03	 2.370E+03	 5.499E+02
   0.425	 6.989E+02	 1.030E+03	 1.181E-02	 8.854E-01	 8.932E-02	 3.872E+00	-3.273E-01	-1.504E-01	-4.818E-04	 0.000E+00	 0.000E+00	 6.478E+00	 1.873E-02	-4.818E-04	 0.000E+00	 2.907E+02	-1.203E+02	 1.633E+02	 3.123E+03	 1.490E+04	-1.299E+02	 2.733E+02	 6.629E+00	-6.750E+03	 1.046E+03	-5.590E+03	 3.792E+02	-6.492E+01	 3.184E+01	-1.292E+04	-1.317E+03	 2.235E+03	 3.792E+02
   0.438	 7.446E+02	 1.097E+03	 1.258E-02	 9.018E-01	 9.518E-02	 3.991E+00	-3.361E-01	-1.597E-01	-5.514E-04	 0.000E+00	 0.000E+00	 6.481E+00	 2.096E-02	-5.514E-04	 0.000E+00	 3.004E+02	-1.228E+02	 1.638E+02	 3.199E+03	 1.535E+04	-1.294E+02	 2.827E+02	 6.964E+00	-6.763E+03	 1.097E+03	-5.461E+03	 1.941E+02	-7.273E+01	 3.397E+01	-1.294E+04	-1.391E+03	 2.320E+03	 1.941E+02
   0.450	 7.933E+02	 1.168E+03	 1.339E-02	 9.137E-01	 1.014E-01	 4.106E+00	-3.446E-01	-1.691E-01	-6.194E-04	 0.000E+00	 0.000E+00	 6.485E+00	 2.334E-02	-6.194E-04	 0.000E+00	 3.070E+02	-1.254E+02	 1.641E+02	 3.288E+03	 1.572E+04	-1.293E+02	 2.905E+02	 7.700E+00	-6.771E+03	 1.151E+03	-5.361E+03	 5.058E+00	-7.597E+01	 3.534E+01	-1.294E+04	-1.439E+03	 2.605E+03	 5.059E+00
   0.463	 8.450E+02	 1.244E+03	 1.425E-02	 9.273E-01	 1.080E-01	 4.218E+00	-3.526E-01	-1.785E-01	-6.844E-04	-7.629E-06	 0.000E+00	 6.489E+00	 2.586E-02	-6.844E-04	 0.000E+00	 3.129E+02	-1.279E+02	 1.640E+02	 3.386E+03	 1.607E+04	-1.312E+02	 2.974E+02	 8.874E+00	-6.776E+03	 1.208E+03	-5.297E+03	-1.797E+02	-7.428E+01	 3.589E+01	-1.295E+04	-1.460E+03	 3.100E+03	-1.797E+02
   0.475	 9.000E+02	 1.324E+03	 1.517E-02	 9.361E-01	 1.150E-01	 4.326E+00	-3.604E-01	-1.878E-01	-7.455E-04	-7.629E-06	 0.000E+00	 6.493E+00	 2.853E-02	-7.455E-04	 0.000E+00	 3.170E+02	-1.311E+02	 1.637E+02	 3.499E+03	 1.637E+04	-1.320E+02	 3.014E+02	 1.047E+01	-6.776E+03	 1.271E+03	-5.224E+03	-3.490E+02	-6.700E+01	 3.555E+01	-1.295E+04	-1.452E+03	 3.823E+03	-3.490E+02
   0.488	 9.583E+02	 1.408E+03	 1.615E-02	 9.467E-01	 1.225E-01	 4.430E+00	-3.680E-01	-1.970E-01	-8.022E-04	-7.629E-06	 0.000E+00	 6.497E+00	 3.135E-02	-8.022E-04	 0.000E+00	 3.205E+02	-1.342E+02	 1.632E+02	 3.620E+03	 1.663E+04	-1.342E+02	 3.044E+02	 1.251E+01	-6.772E+03	 1.339E+03	-5.184E+03	-4.953E+02	-5.489E+01	 3.438E+01	-1.295E+04	-1.417E+03	 4.752E+03	-4.954E+02
   0.500	 1.020E+03	 1.498E+03	 1.718E-02	 9.525E-01	 1.304E-01	 4.531E+00	-3.754E-01	-2.061E-01	-8.544E-04	-7.629E-06	 0.000E+00	 6.501E+00	 3.432E-02	-8.544E-04	 0.000E+00	 3.222E+02	-1.380E+02	 1.624E+02	 3.758E+03	 1.684E+04	-1.363E+02	 3.052E+02	 1.495E+01	-6.765E+03	 1.413E+03	-5.149E+03	-6.102E+02	-3.787E+01	 3.240E+01	-1.294E+04	-1.357E+03	 5.888E+03	-6.102E+02
   0.512	 1.085E+03	 1.593E+03	 1.826E-02	 9.597E-01	 1.387E-01	 4.628E+00	-3.826E-01	-2.151E-01	-9.026E-04	-7.629E-06	 0.000E+00	 6.506E+00	 3.744E-02	-9.026E-04	 0.000E+00	 3.236E+02	-1.416E+02	 1.615E+02	 3.898E+03	 1.703E+04	-1.409E+02	 3.053E+02	 1.777E+01	-6.756E+03	 1.495E+03	-5.147E+03	-6.879E+02	-1.679E+01	 2.977E+01	-1.293E+04	-1.276E+03	 7.205E+03	-6.879E+02
   0.525	 1.154E+03	 1.692E+03	 1.940E-02	 9.629E-01	 1.474E-01	 4.721E+00	-3.896E-01	-2.239E-01	-9.475E-04	-7.629E-06	 0.000E+00	 6.510E+00	 4.071E-02	-9.475E-04	 0.000E+00	 3.232E+02	-1.462E+02	 1.607E+02	 4.057E+03	 1.715E+04	-1.443E+02	 3.041E+02	 2.089E+01	-6.743E+03	 1.584E+03	-5.161E+03	-7.236E+02	 7.952E+00	 2.660E+01	-1.292E+04	-1.178E+03	 8.686E+03	-7.236E+02
   0.538	 1.225E+03	 1.795E+03	 2.058E-02	 9.721E-01	 1.565E-01	 4.809E+00	-3.963E-01	-2.326E-01	-9.909E-04	-7.629E-06	 0.000E+00	 6.513E+00	 4.414E-02	-9.909E-04	 0.000E+00	 3.253E+02	-1.510E+02	 1.596E+02	 4.214E+03	 1.731E+04	-1.467E+02	 3.025E+02	 2.421E+01	-6.731E+03	 1.679E+03	-5.188E+03	-7.161E+02	 3.617E+01	 2.310E+01	-1.290E+04	-1.072E+03	 1.032E+04	-7.162E+02
   0.550	 1.299E+03	 1.903E+03	 2.181E-02	 9.738E-01	 1.660E-01	 4.894E+00	-4.028E-01	-2.410E-01	-1.034E-03	-1.526E-05	 0.000E+00	 6.517E+00	 4.772E-02	-1.034E-03	 0.000E+00	 3.234E+02	-1.563E+02	 1.589E+02	 4.389E+03	 1.737E+04	-1.511E+02	 3.008E+02	 2.766E+01	-6.717E+03	 1.783E+03	-5.254E+03	-6.655E+02	 6.597E+01	 1.949E+01	-1.289E+04	-9.646E+02	 1.205E+04	-6.655E+02
   0.562	 1.375E+03	 2.014E+03	 2.308E-02	 9.777E-01	 1.757E-01	 4.973E+00	-4.088E-01	-2.491E-01	-1.080E-03	-1.526E-05	 0.000E+00	 6.520E+00	 5.146E-02	-1.080E-03	 0.000E+00	 3.214E+02	-1.609E+02	 1.583E+02	 4.551E+03	 1.742E+04	-1.570E+02	 3.004E+02	 3.115E+01	-6.705E+03	 1.892E+03	-5.373E+03	-5.753E+02	 9.670E+01	 1.604E+01	-1.288E+04	-8.638E+02	 1.385E+04	-5.753E+02
   0.575	 1.453E+03	 2.127E+03	 2.439E-02	 9.785E-01	 1.857E-01	 5.049E+00	-4.143E-01	-2.569E-01	-1.131E-03	-1.526E-05	 0.000E+00	 6.523E+00	 5.536E-02	-1.131E-03	 0.000E+00	 3.187E+02	-1.666E+02	 1.581E+02	 4.727E+03	 1.743E+04	-1.618E+02	 2.999E+02	 3.453E+01	-6.693E+03	 2.008E+03	-5.496E+03	-4.496E+02	 1.284E+02	 1.294E+01	-1.287E+04	-7.763E+02	 1.572E+04	-4.496E+02
   0.588	 1.533E+03	 2.243E+03	 2.571E-02	 9.834E-01	 1.959E-01	 5.119E+00	-4.193E-01	-2.644E-01	-1.188E-03	-2.289E-05	 0.000E+00	 6.525E+00	 5.942E-02	-1.188E-03	 0.000E+00	 3.169E+02	-1.720E+02	 1.581E+02	 4.892E+03	 1.746E+04	-1.656E+02	 3.009E+02	 3.770E+01	-6.684E+03	 2.129E+03	-5.652E+03	-2.967E+02	 1.600E+02	 1.047E+01	-1.286E+04	-7.112E+02	 1.762E+04	-2.967E+02
   0.600	 1.614E+03	 2.361E+03	 2.707E-02	 9.841E-01	 2.062E-01	 5.185E+00	-4.236E-01	-2.715E-01	-1.255E-03	-2.289E-05	 0.000E+00	 6.526E+00	 6.363E-02	-1.255E-03	 0.000E+00	 3.141E+02	-1.779E+02	 1.584E+02	 5.062E+03	 1.745E+04	-1.700E+02	 3.026E+02	 4.058E+01	-6.678E+03	 2.253E+03	-5.821E+03	-1.260E+02	 1.908E+02	 8.809E+00	-1.285E+04	-6.744E+02	 1.953E+04	-1.260E+02
   0.613	 1.695E+03	 2.480E+03	 2.843E-02	 9.889E-01	 2.167E-01	 5.245E+00	-4.271E-01	-2.781E-01	-1.333E-03	-2.289E-05	 0.000E+00	 6.527E+00	 6.799E-02	-1.333E-03	 0.000E+00	 3.130E+02	-1.832E+02	 1.589E+02	 5.214E+03	 1.746E+04	-1.737E+02	 3.062E+02	 4.307E+01	-6.675E+03	 2.381E+03	-6.011E+03	 5.374E+01	 2.204E+02	 8.189E+00	-1.285E+04	-6.727E+02	 2.142E+04	 5.373E+01
   0.625	 1.778E+03	 2.600E+03	 2.981E-02	 9.899E-01	 2.272E-01	 5.301E+00	-4.300E-01	-2.844E-01	-1.424E-03	-3.052E-05	 0.000E+00	 6.528E+00	 7.251E-02	-1.424E-03	 0.000E+00	 3.107E+02	-1.890E+02	 1.598E+02	 5.369E+03	 1.745E+04	-1.773E+02	 3.109E+02	 4.510E+01	-6.676E+03	 2.511E+03	-6.209E+03	 2.313E+02	 2.481E+02	 8.703E+00	-1.285E+04	-7.093E+02	 2.327E+04	 2.313E+02
   0.637	 1.860E+03	 2.721E+03	 3.119E-02	 9.933E-01	 2.378E-01	 5.352E+00	-4.320E-01	-2.901E-01	-1.530E-03	-3.052E-05	 0.000E+00	 6.529E+00	 7.717E-02	-1.530E-03	 0.000E+00	 3.100E+02	-1.940E+02	 1.608E+02	 5.507E+03	 1.747E+04	-1.798E+02	 3.169E+02	 4.660E+01	-6.679E+03	 2.641E+03	-6.394E+03	 3.979E+02	 2.741E+02	 1.047E+01	-1.285E+04	-7.876E+02	 2.509E+04	 3.979E+02
   0.650	 1.944E+03	 2.843E+03	 3.259E-02	 9.947E-01	 2.484E-01	 5.397E+00	-4.335E-01	-2.954E-01	-1.651E-03	-3.815E-05	 0.000E+00	 6.530E+00	 8.199E-02	-1.651E-03	 0.000E+00	 3.085E+02	-1.993E+02	 1.622E+02	 5.643E+03	 1.746E+04	-1.823E+02	 3.247E+02	 4.758E+01	-6.686E+03	 2.773E+03	-6.591E+03	 5.437E+02	 2.972E+02	 1.349E+01	-1.286E+04	-9.075E+02	 2.683E+04	 5.437E+02
   0.663	 2.027E+03	 2.964E+03	 3.398E-02	 1.001E+00	 2.591E-01	 5.437E+00	-4.342E-01	-3.000E-01	-1.788E-03	-3.815E-05	 0.000E+00	 6.530E+00	 8.695E-02	-1.788E-03	 0.000E+00	 3.087E+02	-2.039E+02	 1.637E+02	 5.767E+03	 1.748E+04	-1.845E+02	 3.350E+02	 4.804E+01	-6.696E+03	 2.903E+03	-6.799E+03	 6.626E+02	 3.176E+02	 1.777E+01	-1.287E+04	-1.068E+03	 2.850E+04	 6.626E+02
   0.675	 2.111E+03	 3.087E+03	 3.539E-02	 1.003E+00	 2.698E-01	 5.473E+00	-4.345E-01	-3.042E-01	-1.941E-03	-4.578E-05	 0.000E+00	 6.531E+00	 9.206E-02	-1.941E-03	 0.000E+00	 3.080E+02	-2.085E+02	 1.654E+02	 5.880E+03	 1.748E+04	-1.861E+02	 3.459E+02	 4.800E+01	-6.707E+03	 3.033E+03	-6.978E+03	 7.480E+02	 3.354E+02	 2.316E+01	-1.288E+04	-1.266E+03	 3.010E+04	 7.480E+02
   0.688	 2.196E+03	 3.210E+03	 3.680E-02	 1.008E+00	 2.806E-01	 5.503E+00	-4.343E-01	-3.078E-01	-2.109E-03	-5.341E-05	 0.000E+00	 6.531E+00	 9.731E-02	-2.109E-03	 0.000E+00	 3.086E+02	-2.123E+02	 1.672E+02	 5.983E+03	 1.751E+04	-1.873E+02	 3.582E+02	 4.751E+01	-6.720E+03	 3.162E+03	-7.135E+03	 7.975E+02	 3.508E+02	 2.955E+01	-1.289E+04	-1.495E+03	 3.162E+04	 7.975E+02
   0.700	 2.281E+03	 3.335E+03	 3.823E-02	 1.010E+00	 2.916E-01	 5.529E+00	-4.339E-01	-3.108E-01	-2.292E-03	-5.341E-05	 0.000E+00	 6.532E+00	 1.027E-01	-2.292E-03	 0.000E+00	 3.084E+02	-2.161E+02	 1.691E+02	 6.077E+03	 1.752E+04	-1.884E+02	 3.713E+02	 4.667E+01	-6.732E+03	 3.290E+03	-7.264E+03	 8.095E+02	 3.636E+02	 3.671E+01	-1.290E+04	-1.750E+03	 3.307E+04	 8.095E+02
   0.713	 2.367E+03	 3.460E+03	 3.966E-02	 1.015E+00	 3.026E-01	 5.549E+00	-4.333E-01	-3.133E-01	-2.487E-03	-6.104E-05	 0.000E+00	 6.533E+00	 1.082E-01	-2.487E-03	 0.000E+00	 3.097E+02	-2.191E+02	 1.709E+02	 6.163E+03	 1.756E+04	-1.897E+02	 3.855E+02	 4.556E+01	-6.744E+03	 3.416E+03	-7.367E+03	 7.855E+02	 3.741E+02	 4.443E+01	-1.292E+04	-2.021E+03	 3.446E+04	 7.855E+02
   0.725	 2.455E+03	 3.588E+03	 4.113E-02	 1.017E+00	 3.138E-01	 5.565E+00	-4.328E-01	-3.153E-01	-2.693E-03	-6.866E-05	 0.000E+00	 6.535E+00	 1.139E-01	-2.693E-03	 0.000E+00	 3.099E+02	-2.221E+02	 1.729E+02	 6.242E+03	 1.757E+04	-1.908E+02	 4.002E+02	 4.431E+01	-6.754E+03	 3.543E+03	-7.432E+03	 7.292E+02	 3.824E+02	 5.240E+01	-1.293E+04	-2.299E+03	 3.578E+04	 7.292E+02
   0.738	 2.544E+03	 3.717E+03	 4.261E-02	 1.020E+00	 3.252E-01	 5.576E+00	-4.323E-01	-3.166E-01	-2.908E-03	-7.629E-05	 0.000E+00	 6.537E+00	 1.197E-01	-2.908E-03	 0.000E+00	 3.110E+02	-2.242E+02	 1.747E+02	 6.312E+03	 1.759E+04	-1.928E+02	 4.151E+02	 4.304E+01	-6.763E+03	 3.669E+03	-7.450E+03	 6.455E+02	 3.893E+02	 6.038E+01	-1.294E+04	-2.576E+03	 3.706E+04	 6.455E+02
   0.750	 2.636E+03	 3.849E+03	 4.412E-02	 1.021E+00	 3.369E-01	 5.584E+00	-4.320E-01	-3.175E-01	-3.131E-03	-8.392E-05	 0.000E+00	 6.539E+00	 1.256E-01	-3.131E-03	 0.000E+00	 3.112E+02	-2.267E+02	 1.767E+02	 6.383E+03	 1.759E+04	-1.944E+02	 4.303E+02	 4.187E+01	-6.769E+03	 3.796E+03	-7.438E+03	 5.420E+02	 3.944E+02	 6.803E+01	-1.294E+04	-2.840E+03	 3.829E+04	 5.420E+02
   0.762	 2.728E+03	 3.983E+03	 4.566E-02	 1.028E+00	 3.487E-01	 5.586E+00	-4.318E-01	-3.179E-01	-3.360E-03	-9.155E-05	 0.000E+00	 6.541E+00	 1.316E-01	-3.360E-03	 0.000E+00	 3.139E+02	-2.287E+02	 1.783E+02	 6.449E+03	 1.762E+04	-1.956E+02	 4.463E+02	 4.093E+01	-6.773E+03	 3.924E+03	-7.394E+03	 4.258E+02	 3.984E+02	 7.515E+01	-1.295E+04	-3.085E+03	 3.949E+04	 4.258E+02
   0.775	 2.824E+03	 4.121E+03	 4.724E-02	 1.029E+00	 3.609E-01	 5.585E+00	-4.319E-01	-3.178E-01	-3.593E-03	-1.068E-04	 0.000E+00	 6.543E+00	 1.377E-01	-3.593E-03	 0.000E+00	 3.140E+02	-2.308E+02	 1.803E+02	 6.517E+03	 1.761E+04	-1.980E+02	 4.618E+02	 4.032E+01	-6.772E+03	 4.054E+03	-7.311E+03	 3.068E+02	 4.014E+02	 8.143E+01	-1.295E+04	-3.301E+03	 4.066E+04	 3.068E+02
   0.788	 2.921E+03	 4.261E+03	 4.884E-02	 1.031E+00	 3.733E-01	 5.579E+00	-4.320E-01	-3.172E-01	-3.829E-03	-1.144E-04	 0.000E+00	 6.546E+00	 1.440E-01	-3.829E-03	 0.000E+00	 3.140E+02	-2.320E+02	 1.822E+02	 6.580E+03	 1.759E+04	-2.018E+02	 4.780E+02	 4.015E+01	-6.770E+03	 4.186E+03	-7.216E+03	 1.917E+02	 4.034E+02	 8.674E+01	-1.294E+04	-3.482E+03	 4.182E+04	 1.917E+02
   0.800	 3.020E+03	 4.404E+03	 5.049E-02	 1.031E+00	 3.860E-01	 5.570E+00	-4.324E-01	-3.162E-01	-4.068E-03	-1.221E-04	 0.000E+00	 6.549E+00	 1.503E-01	-4.068E-03	 0.000E+00	 3.139E+02	-2.341E+02	 1.843E+02	 6.652E+03	 1.755E+04	-2.050E+02	 4.933E+02	 4.047E+01	-6.763E+03	 4.321E+03	-7.075E+03	 9.033E+01	 4.054E+02	 9.086E+01	-1.294E+04	-3.621E+03	 4.298E+04	 9.033E+01
   0.812	 3.122E+03	 4.550E+03	 5.216E-02	 1.032E+00	 3.990E-01	 5.557E+00	-4.327E-01	-3.148E-01	-4.310E-03	-1.373E-04	 0.000E+00	 6.551E+00	 1.568E-01	-4.310E-03	 0.000E+00	 3.140E+02	-2.357E+02	 1.864E+02	 6.723E+03	 1.751E+04	-2.087E+02	 5.080E+02	 4.131E+01	-6.755E+03	 4.458E+03	-6.895E+03	 7.465E+00	 4.078E+02	 9.374E+01	-1.293E+04	-3.717E+03	 4.417E+04	 7.468E+00
   0.825	 3.225E+03	 4.699E+03	 5.387E-02	 1.031E+00	 4.122E-01	 5.541E+00	-4.329E-01	-3.130E-01	-4.554E-03	-1.450E-04	 0.000E+00	 6.554E+00	 1.634E-01	-4.554E-03	 0.000E+00	 3.137E+02	-2.382E+02	 1.887E+02	 6.806E+03	 1.745E+04	-2.124E+02	 5.229E+02	 4.274E+01	-6.744E+03	 4.600E+03	-6.710E+03	-5.235E+01	 4.102E+02	 9.533E+01	-1.292E+04	-3.768E+03	 4.537E+04	-5.234E+01
   0.838	 3.330E+03	 4.850E+03	 5.560E-02	 1.034E+00	 4.256E-01	 5.522E+00	-4.328E-01	-3.108E-01	-4.801E-03	-1.602E-04	 0.000E+00	 6.556E+00	 1.700E-01	-4.801E-03	 0.000E+00	 3.158E+02	-2.406E+02	 1.907E+02	 6.889E+03	 1.743E+04	-2.147E+02	 5.374E+02	 4.475E+01	-6.733E+03	 4.744E+03	-6.502E+03	-8.509E+01	 4.134E+02	 9.569E+01	-1.291E+04	-3.776E+03	 4.661E+04	-8.509E+01
   0.850	 3.436E+03	 5.004E+03	 5.736E-02	 1.034E+00	 4.392E-01	 5.500E+00	-4.324E-01	-3.083E-01	-5.054E-03	-1.755E-04	 0.000E+00	 6.557E+00	 1.768E-01	-5.054E-03	 0.000E+00	 3.156E+02	-2.436E+02	 1.932E+02	 6.988E+03	 1.736E+04	-2.185E+02	 5.518E+02	 4.728E+01	-6.721E+03	 4.891E+03	-6.297E+03	-8.843E+01	 4.169E+02	 9.487E+01	-1.289E+04	-3.742E+03	 4.788E+04	-8.844E+01
   0.863	 3.543E+03	 5.158E+03	 5.913E-02	 1.034E+00	 4.528E-01	 5.475E+00	-4.314E-01	-3.054E-01	-5.313E-03	-1.907E-04	 0.000E+00	 6.559E+00	 1.837E-01	-5.313E-03	 0.000E+00	 3.149E+02	-2.463E+02	 1.961E+02	 7.086E+03	 1.728E+04	-2.235E+02	 5.667E+02	 5.027E+01	-6.708E+03	 5.040E+03	-6.108E+03	-6.412E+01	 4.210E+02	 9.306E+01	-1.288E+04	-3.671E+03	 4.919E+04	-6.413E+01
   0.875	 3.651E+03	 5.314E+03	 6.092E-02	 1.033E+00	 4.666E-01	 5.448E+00	-4.299E-01	-3.024E-01	-5.580E-03	-2.060E-04	 0.000E+00	 6.560E+00	 1.906E-01	-5.580E-03	 0.000E+00	 3.149E+02	-2.501E+02	 1.989E+02	 7.199E+03	 1.721E+04	-2.269E+02	 5.808E+02	 5.366E+01	-6.697E+03	 5.192E+03	-5.910E+03	-1.447E+01	 4.264E+02	 9.040E+01	-1.287E+04	-3.569E+03	 5.056E+04	-1.448E+01
   0.887	 3.758E+03	 5.470E+03	 6.271E-02	 1.032E+00	 4.803E-01	 5.418E+00	-4.276E-01	-2.990E-01	-5.857E-03	-2.213E-04	 0.000E+00	 6.560E+00	 1.976E-01	-5.857E-03	 0.000E+00	 3.151E+02	-2.536E+02	 2.018E+02	 7.312E+03	 1.713E+04	-2.290E+02	 5.946E+02	 5.735E+01	-6.686E+03	 5.345E+03	-5.714E+03	 5.683E+01	 4.331E+02	 8.714E+01	-1.286E+04	-3.444E+03	 5.200E+04	 5.682E+01
   0.900	 3.866E+03	 5.627E+03	 6.450E-02	 1.031E+00	 4.941E-01	 5.386E+00	-4.247E-01	-2.955E-01	-6.147E-03	-2.365E-04	 0.000E+00	 6.560E+00	 2.048E-01	-6.147E-03	 0.000E+00	 3.153E+02	-2.580E+02	 2.049E+02	 7.440E+03	 1.706E+04	-2.317E+02	 6.084E+02	 6.121E+01	-6.678E+03	 5.499E+03	-5.539E+03	 1.437E+02	 4.411E+02	 8.350E+01	-1.285E+04	-3.304E+03	 5.349E+04	 1.436E+02
   0.913	 3.973E+03	 5.783E+03	 6.629E-02	 1.034E+00	 5.078E-01	 5.352E+00	-4.211E-01	-2.917E-01	-6.451E-03	-2.518E-04	 0.000E+00	 6.560E+00	 2.119E-01	-6.451E-03	 0.000E+00	 3.172E+02	-2.627E+02	 2.080E+02	 7.571E+03	 1.701E+04	-2.334E+02	 6.222E+02	 6.513E+01	-6.672E+03	 5.653E+03	-5.377E+03	 2.400E+02	 4.509E+02	 7.975E+01	-1.285E+04	-3.156E+03	 5.507E+04	 2.400E+02
   0.925	 4.079E+03	 5.938E+03	 6.807E-02	 1.033E+00	 5.214E-01	 5.316E+00	-4.169E-01	-2.877E-01	-6.772E-03	-2.747E-04	 0.000E+00	 6.559E+00	 2.192E-01	-6.772E-03	 0.000E+00	 3.178E+02	-2.677E+02	 2.112E+02	 7.711E+03	 1.694E+04	-2.354E+02	 6.358E+02	 6.900E+01	-6.669E+03	 5.807E+03	-5.239E+03	 3.380E+02	 4.620E+02	 7.614E+01	-1.284E+04	-3.010E+03	 5.672E+04	 3.380E+02
   0.938	 4.184E+03	 6.092E+03	 6.984E-02	 1.030E+00	 5.348E-01	 5.279E+00	-4.121E-01	-2.836E-01	-7.111E-03	-2.899E-04	 0.000E+00	 6.558E+00	 2.265E-01	-7.111E-03	 0.000E+00	 3.171E+02	-2.721E+02	 2.145E+02	 7.848E+03	 1.686E+04	-2.387E+02	 6.493E+02	 7.270E+01	-6.667E+03	 5.959E+03	-5.132E+03	 4.316E+02	 4.744E+02	 7.291E+01	-1.284E+04	-2.873E+03	 5.843E+04	 4.315E+02
   0.950	 4.289E+03	 6.245E+03	 7.159E-02	 1.029E+00	 5.481E-01	 5.241E+00	-4.068E-01	-2.795E-01	-7.469E-03	-3.128E-04	 0.000E+00	 6.557E+00	 2.339E-01	-7.469E-03	 0.000E+00	 3.177E+02	-2.774E+02	 2.176E+02	 7.994E+03	 1.679E+04	-2.401E+02	 6.625E+02	 7.613E+01	-6.668E+03	 6.109E+03	-5.041E+03	 5.122E+02	 4.889E+02	 7.025E+01	-1.284E+04	-2.752E+03	 6.023E+04	 5.121E+02
   0.963	 4.391E+03	 6.397E+03	 7.332E-02	 1.029E+00	 5.613E-01	 5.202E+00	-4.013E-01	-2.752E-01	-7.847E-03	-3.281E-04	 0.000E+00	 6.556E+00	 2.414E-01	-7.847E-03	 0.000E+00	 3.198E+02	-2.825E+02	 2.205E+02	 8.136E+03	 1.674E+04	-2.403E+02	 6.746E+02	 7.918E+01	-6.672E+03	 6.258E+03	-4.941E+03	 5.758E+02	 5.059E+02	 6.835E+01	-1.285E+04	-2.654E+03	 6.213E+04	 5.758E+02
   0.975	 4.493E+03	 6.546E+03	 7.504E-02	 1.027E+00	 5.743E-01	 5.163E+00	-3.956E-01	-2.708E-01	-8.245E-03	-3.510E-04	 0.000E+00	 6.555E+00	 2.489E-01	-8.245E-03	 0.000E+00	 3.203E+02	-2.877E+02	 2.234E+02	 8.287E+03	 1.668E+04	-2.416E+02	 6.871E+02	 8.180E+01	-6.677E+03	 6.404E+03	-4.888E+03	 6.174E+02	 5.240E+02	 6.730E+01	-1.285E+04	-2.581E+03	 6.410E+04	 6.173E+02
   0.988	 4.594E+03	 6.694E+03	 7.673E-02	 1.027E+00	 5.871E-01	 5.122E+00	-3.900E-01	-2.665E-01	-8.665E-03	-3.738E-04	 0.000E+00	 6.553E+00	 2.564E-01	-8.665E-03	 0.000E+00	 3.206E+02	-2.926E+02	 2.262E+02	 8.428E+03	 1.661E+04	-2.436E+02	 6.995E+02	 8.390E+01	-6.683E+03	 6.548E+03	-4.855E+03	 6.340E+02	 5.440E+02	 6.723E+01	-1.286E+04	-2.539E+03	 6.614E+04	 6.340E+02
   1.000	 4.693E+03	 6.840E+03	 7.841E-02	 1.026E+00	 5.998E-01	 5.082E+00	-3.845E-01	-2.621E-01	-9.105E-03	-3.967E-04	 0.000E+00	 6.552E+00	 2.640E-01	-9.105E-03	 0.000E+00	 3.207E+02	-2.975E+02	 2.287E+02	 8.575E+03	 1.653E+04	-2.450E+02	 7.115E+02	 8.548E+01	-6.690E+03	 6.689E+03	-4.844E+03	 6.218E+02	 5.655E+02	 6.814E+01	-1.286E+04	-2.527E+03	 6.825E+04	 6.218E+02